37

   O     -1.36584      2.53122     -4.50618
   C     -1.27063      2.06646     -3.38438
   N     -0.08682      1.32708     -3.03173
   C      0.18907      0.72470     -1.82961
   N     -0.65275      0.76487     -0.80898
   C     -1.78296      1.46868     -1.07779
   C     -2.16171      2.11342     -2.25496
   N     -3.39497      2.72210     -2.11221
   C     -3.75265      2.45678     -0.88416
   N     -2.81502      1.69390     -0.20429
   N      1.35398      0.04001     -1.71139
   H      0.57270      1.25306     -3.79654
   H     -4.67102      2.77552     -0.41078
   C     -2.86249      1.26015      1.19945
   H     -3.55101      1.89755      1.75421
   H     -1.86669      1.33294      1.63670
   H     -3.20551      0.22669      1.24840
   H      1.66666     -0.19764     -0.76143
   H      2.07375      0.18994     -2.40057
   N     -0.62293     -0.76454      1.76116
   C      0.31000     -0.46072      2.68284
   N     -0.00520     -0.61266      3.98714
   C      0.91029     -0.30713      4.91650
   N      2.15466      0.15487      4.74971
   C      2.44446      0.28301      3.45065
   C      1.61223     -0.00105      2.36243
   N      2.27611      0.23391      1.16477
   C      3.46723      0.65461      1.52390
   N      3.62938      0.70902      2.88604
   H      0.59272     -0.45200      5.94704
   H      4.26052      0.93483      0.84463
   C      4.82921      1.12483      3.62658
   H      5.18328      0.29657      4.24035
   H      4.58635      1.97363      4.26584
   H      5.60891      1.41307      2.92154
   H     -1.50754     -1.09532      2.11429
   H     -0.52368     -0.53897      0.76912
