          15
  Built with Packmol                                             
  S           -0.932647       -0.498217        0.791996
  O            1.210510        2.711032       -2.302768
  N            0.289969        1.282720       -0.750599
  N            1.694368        2.998343       -0.074560
  C            1.075024        2.361909       -1.147209
  C            0.069364        0.817121        0.535446
  C            0.761964        1.545025        1.567024
  C            1.542155        2.602238        1.231276
  H           -0.180387        0.799090       -1.509010
  H            2.274579        3.788632       -0.323365
  H            0.642056        1.232426        2.598331
  H            2.082927        3.188984        1.965597
  O           -0.310281       -0.201043        4.128280
  H           -0.639164       -0.376227        3.224011
  H            0.305282       -0.933411        4.283923
