15
0 1 0 1 0 1
  S     2.248486     2.316954    -0.423680
  O    -2.355262     0.524397    -0.174268
  N    -0.163149     1.220529    -0.256371
  N    -0.669405    -1.012871     0.101900
  C    -1.169220     0.268415    -0.116508
  C     1.207556     1.023718    -0.214007
  C     1.613959    -0.337457     0.022068
  C     0.671338    -1.301344     0.168735
  H    -0.493897     2.165764    -0.422069
  H    -1.371401    -1.733183     0.208941
  H     2.672658    -0.565590     0.075000
  H     0.919069    -2.342453     0.343823
  O     4.855690     0.159276    -0.032065
  H     4.229948     0.884526    -0.229592
  H     5.153093     0.364533     0.867339
